/*--------------------------------*- C++ -*----------------------------------*\
| =========                 |                                                 |
| \\      /  F ield         | OpenFOAM: The Open Source CFD Toolbox           |
|  \\    /   O peration     | Version:  2.4.0                                 |
|   \\  /    A nd           | Web:      www.OpenFOAM.org                      |
|    \\/     M anipulation  |                                                 |
\*---------------------------------------------------------------------------*/
FoamFile
{
    version     2.0;
    format      binary;
    class       polyBoundaryMesh;
    location    "constant/polyMesh";
    object      boundary;
}
// * * * * * * * * * * * * * * * * * * * * * * * * * * * * * * * * * * * * * //

9
(
    frontAndBack
    {
        type            patch;
        nFaces          36;
        startFace       226946;
    }
    inlet
    {
        type            patch;
        nFaces          0;
        startFace       226982;
    }
    outlet
    {
        type            patch;
        nFaces          0;
        startFace       226982;
    }
    lowerWall
    {
        type            wall;
        inGroups        1(wall);
        nFaces          100;
        startFace       226982;
    }
    upperWall
    {
        type            patch;
        nFaces          32;
        startFace       227082;
    }
    carMirror_Body
    {
        type            wall;
        inGroups        
2
(
carGroup
wall
)
;
        nFaces          0;
        startFace       227114;
    }
    carMirror_Mirrors
    {
        type            wall;
        inGroups        
2
(
carGroup
wall
)
;
        nFaces          0;
        startFace       227114;
    }
    procBoundary2to3
    {
        type            processor;
        inGroups        1(processor);
        nFaces          2596;
        startFace       227114;
        matchTolerance  0.0001;
        transform       unknown;
        myProcNo        2;
        neighbProcNo    3;
    }
    procBoundary2to1
    {
        type            processor;
        inGroups        1(processor);
        nFaces          2440;
        startFace       229710;
        matchTolerance  0.0001;
        transform       unknown;
        myProcNo        2;
        neighbProcNo    1;
    }
)

// ************************************************************************* //
