/*--------------------------------*- C++ -*----------------------------------*\
| =========                 |                                                 |
| \\      /  F ield         | OpenFOAM: The Open Source CFD Toolbox           |
|  \\    /   O peration     | Version:  2.4.0                                 |
|   \\  /    A nd           | Web:      www.OpenFOAM.org                      |
|    \\/     M anipulation  |                                                 |
\*---------------------------------------------------------------------------*/
FoamFile
{
    version     2.0;
    format      binary;
    class       polyBoundaryMesh;
    location    "constant/polyMesh";
    object      boundary;
}
// * * * * * * * * * * * * * * * * * * * * * * * * * * * * * * * * * * * * * //

8
(
    frontAndBack
    {
        type            patch;
        nFaces          162;
        startFace       229433;
    }
    inlet
    {
        type            patch;
        nFaces          0;
        startFace       229595;
    }
    outlet
    {
        type            patch;
        nFaces          72;
        startFace       229595;
    }
    lowerWall
    {
        type            wall;
        inGroups        1(wall);
        nFaces          179;
        startFace       229667;
    }
    upperWall
    {
        type            patch;
        nFaces          90;
        startFace       229846;
    }
    carMirror_Body
    {
        type            wall;
        inGroups        
2
(
carGroup
wall
)
;
        nFaces          0;
        startFace       229936;
    }
    carMirror_Mirrors
    {
        type            wall;
        inGroups        
2
(
carGroup
wall
)
;
        nFaces          0;
        startFace       229936;
    }
    procBoundary3to2
    {
        type            processor;
        inGroups        1(processor);
        nFaces          2596;
        startFace       229936;
        matchTolerance  0.0001;
        transform       unknown;
        myProcNo        3;
        neighbProcNo    2;
    }
)

// ************************************************************************* //
