/*--------------------------------*- C++ -*----------------------------------*\
| =========                 |                                                 |
| \\      /  F ield         | OpenFOAM: The Open Source CFD Toolbox           |
|  \\    /   O peration     | Version:  2.4.0                                 |
|   \\  /    A nd           | Web:      www.OpenFOAM.org                      |
|    \\/     M anipulation  |                                                 |
\*---------------------------------------------------------------------------*/
FoamFile
{
    version     2.0;
    format      binary;
    class       polyBoundaryMesh;
    location    "constant/polyMesh";
    object      boundary;
}
// * * * * * * * * * * * * * * * * * * * * * * * * * * * * * * * * * * * * * //

8
(
    frontAndBack
    {
        type            patch;
        nFaces          108;
        startFace       229470;
    }
    inlet
    {
        type            patch;
        nFaces          72;
        startFace       229578;
    }
    outlet
    {
        type            patch;
        nFaces          0;
        startFace       229650;
    }
    lowerWall
    {
        type            wall;
        inGroups        1(wall);
        nFaces          152;
        startFace       229650;
    }
    upperWall
    {
        type            patch;
        nFaces          60;
        startFace       229802;
    }
    carMirror_Body
    {
        type            wall;
        inGroups        
2
(
carGroup
wall
)
;
        nFaces          0;
        startFace       229862;
    }
    carMirror_Mirrors
    {
        type            wall;
        inGroups        
2
(
carGroup
wall
)
;
        nFaces          34;
        startFace       229862;
    }
    procBoundary0to1
    {
        type            processor;
        inGroups        1(processor);
        nFaces          2553;
        startFace       229896;
        matchTolerance  0.0001;
        transform       unknown;
        myProcNo        0;
        neighbProcNo    1;
    }
)

// ************************************************************************* //
